64
pbc="T T T" Lattice="10.862 0 0 0 10.862 0 0 0 10.862" Properties=species:S:1:pos:R:3:mass:R:1
Si 0 0 0 28
Si 0 2.7155 2.7155 28
Si 2.7155 0 2.7155 28
Si 2.7155 2.7155 0 28
Si 1.35775 1.35775 1.35775 28
Si 1.35775 4.07325 4.07325 28
Si 4.07325 1.35775 4.07325 28
Si 4.07325 4.07325 1.35775 28
Si 0 0 5.431 28
Si 0 2.7155 8.1465 28
Si 2.7155 0 8.1465 28
Si 2.7155 2.7155 5.431 28
Si 1.35775 1.35775 6.78875 28
Si 1.35775 4.07325 9.50425 28
Si 4.07325 1.35775 9.50425 28
Si 4.07325 4.07325 6.78875 28
Si 0 5.431 0 28
Si 0 8.1465 2.7155 28
Si 2.7155 5.431 2.7155 28
Si 2.7155 8.1465 0 28
Si 1.35775 6.78875 1.35775 28
Si 1.35775 9.50425 4.07325 28
Si 4.07325 6.78875 4.07325 28
Si 4.07325 9.50425 1.35775 28
Si 0 5.431 5.431 28
Si 0 8.1465 8.1465 28
Si 2.7155 5.431 8.1465 28
Si 2.7155 8.1465 5.431 28
Si 1.35775 6.78875 6.78875 28
Si 1.35775 9.50425 9.50425 28
Si 4.07325 6.78875 9.50425 28
Si 4.07325 9.50425 6.78875 28
Si 5.431 0 0 28
Si 5.431 2.7155 2.7155 28
Si 8.1465 0 2.7155 28
Si 8.1465 2.7155 0 28
Si 6.78875 1.35775 1.35775 28
Si 6.78875 4.07325 4.07325 28
Si 9.50425 1.35775 4.07325 28
Si 9.50425 4.07325 1.35775 28
Si 5.431 0 5.431 28
Si 5.431 2.7155 8.1465 28
Si 8.1465 0 8.1465 28
Si 8.1465 2.7155 5.431 28
Si 6.78875 1.35775 6.78875 28
Si 6.78875 4.07325 9.50425 28
Si 9.50425 1.35775 9.50425 28
Si 9.50425 4.07325 6.78875 28
Si 5.431 5.431 0 28
Si 5.431 8.1465 2.7155 28
Si 8.1465 5.431 2.7155 28
Si 8.1465 8.1465 0 28
Si 6.78875 6.78875 1.35775 28
Si 6.78875 9.50425 4.07325 28
Si 9.50425 6.78875 4.07325 28
Si 9.50425 9.50425 1.35775 28
Si 5.431 5.431 5.431 28
Si 5.431 8.1465 8.1465 28
Si 8.1465 5.431 8.1465 28
Si 8.1465 8.1465 5.431 28
Si 6.78875 6.78875 6.78875 28
Si 6.78875 9.50425 9.50425 28
Si 9.50425 6.78875 9.50425 28
Si 9.50425 9.50425 6.78875 28
